TEST_N_EXP_ElemCurrents.CSV
Element, Nterminals, Nconductors, I_1, Ang_1, ...
"Vsource.source", 2, 3,    10.2307,   145.52,    10.2307,    25.52,    10.2307,   -94.48,    10.2307,   -34.48,    10.2307,  -154.48,    10.2307,    85.52
"Line.linea-b", 2, 3,    10.2307,   -34.48,    10.2307,  -154.48,    10.2307,    85.52,    10.2353,   145.48,    10.2353,    25.48,    10.2353,   -94.52
"Load.l1", 1, 4,    10.2353,   -34.52,    10.2353,  -154.52,    10.2353,    85.48, 1.99742E-009,  -154.52
